
     RDKit          3D

  8  7  0  0  0  0  0  0  0  0999 V2000
   -0.7533   -0.0093    0.0601 C   0  0  0  0  0  0  0  0  0  0  0  0
    0.7504   -0.0263    0.0011 C   0  0  0  0  0  0  0  0  0  0  0  0
   -1.1589    0.1177    1.0753 H   0  0  0  0  0  0  0  0  0  0  0  0
   -1.0772    0.8427   -0.5977 H   0  0  0  0  0  0  0  0  0  0  0  0
   -1.1758   -0.9182   -0.4328 H   0  0  0  0  0  0  0  0  0  0  0  0
    1.0733   -0.5749   -0.9198 H   0  0  0  0  0  0  0  0  0  0  0  0
    1.2143   -0.4556    0.9130 H   0  0  0  0  0  0  0  0  0  0  0  0
    1.1271    1.0239   -0.0993 H   0  0  0  0  0  0  0  0  0  0  0  0
  1  2  1  0
  1  3  1  0
  1  4  1  0
  1  5  1  0
  2  6  1  0
  2  7  1  0
  2  8  1  0
M  END
